*Heading
** Job name: Job-1sample2 Model name: Model-1
** Generated by: Abaqus/CAE 2017
*Preprint, echo=NO, model=NO, history=NO, contact=NO
**
** PARTS
**
*Part, name=sample2
*End Part
**  
**
** ASSEMBLY
**
*Assembly, name=Assembly
**  
*Instance, name=sample2-1, part=sample2
*Node
      1,           0.,           0.
      2,          10.,           0.
      3,          20.,           0.
      4,          30.,           0.
      5,          40.,           0.
      6,          50.,           0.
      7,          60.,           0.
      8,          70.,           0.
      9,          80.,           0.
     10,          90.,           0.
     11,         100.,           0.
     12,         110.,           0.
     13,         120.,           0.
     14,         130.,           0.
     15,         140.,           0.
     16,         150.,           0.
     17,         160.,           0.
     18,         170.,           0.
     19,         180.,           0.
     20,         190.,           0.
** ... 10181 like lines cut
*Element, type=CPS4R
    1,     1,     2,   103,   102
    2,     2,     3,   104,   103
    3,     3,     4,   105,   104
    4,     4,     5,   106,   105
    5,     5,     6,   107,   106
    6,     6,     7,   108,   107
    7,     7,     8,   109,   108
    8,     8,     9,   110,   109
    9,     9,    10,   111,   110
   10,    10,    11,   112,   111
   11,    11,    12,   113,   112
   12,    12,    13,   114,   113
   13,    13,    14,   115,   114
   14,    14,    15,   116,   115
   15,    15,    16,   117,   116
   16,    16,    17,   118,   117
   17,    17,    18,   119,   118
   18,    18,    19,   120,   119
   19,    19,    20,   121,   120
   20,    20,    21,   122,   121
** ... 9980 like lines cut
*Nset, nset=Set-1, generate
     1,  10201,      1
*Elset, elset=Set-1, generate
     1,  10000,      1
** Section: Section-1sample1
*Solid Section, elset=Set-1, material=Material-1
,
*End Instance
**  
*End Assembly
** 
** MATERIALS
** 
*Material, name=Material-1
*Elastic
109039.,0.
